<?xml version="1.0" encoding="UTF-8"?>
    <additional>

    <tlLogic id="gneJ21" type="static" programID="a1" offset="0">
        <!-- 6:00:00 - 11:00:00 -->
        <phase duration="93" state="GGGrrgrrGGGrrrrrr" name="1"/>
        <phase duration="6"  state="yyyrrgrryyyrrrrrr" name="1_to_2"/>
        <phase duration="26" state="rrrggGrrrrrGGrrrr" name="2"/>
        <phase duration="3"  state="rrryyGrrrrryyrrrr" name="2_to_3"/>
        <phase duration="23" state="rrrrrgrrrrrrrGGGG" name="3"/>
        <phase duration="6"  state="rrrrrgrrrrrrryyyy" name="3_to_4"/>
        <phase duration="23" state="rrrrrGGGrrrrrrrrr" name="4"/>
        <phase duration="6"  state="rrrrryyyrrrrrrrrr" name="4_to_5"/>
        <phase duration="31" state="rrrrrrrrrrrrrrrrr" name="5"/>
    </tlLogic>

    <tlLogic id="gneJ8" type="static" programID="a1" offset="0">
        <!-- 5:00:00 - 11:00:00 -->
        <phase duration="70" state="rrGGGGGGrrG" name="1"/>
        <phase duration="4"  state="rryyyyGGrrG" name="1_to_2"/>
        <phase duration="13" state="rrrrrrGGGGG" name="2"/>
        <phase duration="7"  state="rrrrrryyGGG" name="2_to_3"/>
        <phase duration="25" state="rrrrrrrrGGG" name="3"/>
        <phase duration="4"  state="rrrrrrrryyG" name="3_to_4"/>
        <phase duration="18" state="GGrrrrrrrrG" name="4"/>
        <phase duration="4"  state="yyrrrrrrrrG" name="4_to_1"/>
    </tlLogic>
        

    </additional>
    